      1 'GENROU' 1     5.0000      0.60000E-01  0.20000      0.60000E-01
          3.0000       0.0000       1.6000       1.5500      0.70000
         0.85000      0.35000      0.20000      0.90000E-01  0.38000    /
      1 'IEEET1' 1     0.0000       40.000      0.60000E-01   2.1000
         -2.1000       0.0000      0.50000      0.80000E-01  0.80000
          0.0000       2.4700      0.35000E-01   3.5000      0.60000    /
      1 'TGOV1'  1    0.50000E-01  0.50000E-01  0.90000      0.30000
          3.0000       9.0000       0.0000    /
      2 'GENROU' 1     5.0000      0.60000E-01  0.20000      0.60000E-01
          3.0000       0.0000       1.6000       1.5500      0.70000
         0.85000      0.35000      0.20000      0.90000E-01  0.38000    /
      2 'IEEET1' 1     0.0000       40.000      0.60000E-01   2.1000
         -2.1000       0.0000      0.50000      0.80000E-01  0.80000
          0.0000       2.4700      0.35000E-01   3.5000      0.60000    /
      2 'TGOV1'  1    0.50000E-01  0.50000E-01  0.90000      0.30000
          3.0000       9.0000       0.0000    /
      3 'GENROU' 1     5.0000      0.60000E-01  0.20000      0.60000E-01
          3.0000       0.0000       1.6000       1.5500      0.70000
         0.85000      0.35000      0.20000      0.90000E-01  0.38000    /
      3 'IEEET1' 1     0.0000       40.000      0.60000E-01   2.1000
         -2.1000       0.0000      0.50000      0.80000E-01  0.80000
          0.0000       2.4700      0.35000E-01   3.5000      0.60000    /
      3 'TGOV1'  1    0.50000E-01  0.50000E-01  0.90000      0.30000
          3.0000       9.0000       0.0000    /
